*SPEF "ieee 1481-1999"
*DESIGN "RAM8"
*DATE "11:11:11 Fri 11 11, 1111"
*VENDOR "OpenRCX"
*PROGRAM "Parallel Extraction"
*VERSION "1.0"
*DESIGN_FLOW "NAME_SCOPE LOCAL" "PIN_CAP NONE"
*DIVIDER /
*DELIMITER :
*BUS_DELIMITER []
*T_UNIT 1 NS
*C_UNIT 1 PF
*R_UNIT 1 OHM
*L_UNIT 1 HENRY

*NAME_MAP
*1 A0[0]
*2 A0[1]
*3 A0[2]
*4 CLK
*5 Di0[0]
*6 Di0[10]
*7 Di0[11]
*8 Di0[12]
*9 Di0[13]
*10 Di0[14]
*11 Di0[15]
*12 Di0[16]
*13 Di0[17]
*14 Di0[18]
*15 Di0[19]
*16 Di0[1]
*17 Di0[20]
*18 Di0[21]
*19 Di0[22]
*20 Di0[23]
*21 Di0[24]
*22 Di0[25]
*23 Di0[26]
*24 Di0[27]
*25 Di0[28]
*26 Di0[29]
*27 Di0[2]
*28 Di0[30]
*29 Di0[31]
*30 Di0[3]
*31 Di0[4]
*32 Di0[5]
*33 Di0[6]
*34 Di0[7]
*35 Di0[8]
*36 Di0[9]
*37 WORD\[0\]\.W\.BYTE\[0\]\.B\.Do0\[0\]
*38 WORD\[0\]\.W\.BYTE\[1\]\.B\.Do0\[2\]
*39 WORD\[0\]\.W\.BYTE\[1\]\.B\.Do0\[3\]
*40 WORD\[0\]\.W\.BYTE\[1\]\.B\.Do0\[4\]
*41 WORD\[0\]\.W\.BYTE\[1\]\.B\.Do0\[5\]
*42 WORD\[0\]\.W\.BYTE\[1\]\.B\.Do0\[6\]
*43 WORD\[0\]\.W\.BYTE\[1\]\.B\.Do0\[7\]
*44 WORD\[0\]\.W\.BYTE\[2\]\.B\.Do0\[0\]
*45 WORD\[0\]\.W\.BYTE\[2\]\.B\.Do0\[1\]
*46 WORD\[0\]\.W\.BYTE\[2\]\.B\.Do0\[2\]
*47 WORD\[0\]\.W\.BYTE\[2\]\.B\.Do0\[3\]
*48 WORD\[0\]\.W\.BYTE\[0\]\.B\.Do0\[1\]
*49 WORD\[0\]\.W\.BYTE\[2\]\.B\.Do0\[4\]
*50 WORD\[0\]\.W\.BYTE\[2\]\.B\.Do0\[5\]
*51 WORD\[0\]\.W\.BYTE\[2\]\.B\.Do0\[6\]
*52 WORD\[0\]\.W\.BYTE\[2\]\.B\.Do0\[7\]
*53 WORD\[0\]\.W\.BYTE\[3\]\.B\.Do0\[0\]
*54 WORD\[0\]\.W\.BYTE\[3\]\.B\.Do0\[1\]
*55 WORD\[0\]\.W\.BYTE\[3\]\.B\.Do0\[2\]
*56 WORD\[0\]\.W\.BYTE\[3\]\.B\.Do0\[3\]
*57 WORD\[0\]\.W\.BYTE\[3\]\.B\.Do0\[4\]
*58 WORD\[0\]\.W\.BYTE\[3\]\.B\.Do0\[5\]
*59 WORD\[0\]\.W\.BYTE\[0\]\.B\.Do0\[2\]
*60 WORD\[0\]\.W\.BYTE\[3\]\.B\.Do0\[6\]
*61 WORD\[0\]\.W\.BYTE\[3\]\.B\.Do0\[7\]
*62 WORD\[0\]\.W\.BYTE\[0\]\.B\.Do0\[3\]
*63 WORD\[0\]\.W\.BYTE\[0\]\.B\.Do0\[4\]
*64 WORD\[0\]\.W\.BYTE\[0\]\.B\.Do0\[5\]
*65 WORD\[0\]\.W\.BYTE\[0\]\.B\.Do0\[6\]
*66 WORD\[0\]\.W\.BYTE\[0\]\.B\.Do0\[7\]
*67 WORD\[0\]\.W\.BYTE\[1\]\.B\.Do0\[0\]
*68 WORD\[0\]\.W\.BYTE\[1\]\.B\.Do0\[1\]
*69 EN0
*72 WE0[0]
*73 WE0[1]
*74 WE0[2]
*75 WE0[3]
*76 CLKBUF\.X
*77 DEC0\.A_buf\[0\]
*78 DEC0\.A_buf\[1\]
*79 DEC0\.A_buf\[2\]
*80 DEC0\.EN_buf
*81 DEC0\.SEL\[0\]
*82 DEC0\.SEL\[1\]
*83 DEC0\.SEL\[2\]
*84 DEC0\.SEL\[3\]
*85 DEC0\.SEL\[4\]
*86 DEC0\.SEL\[5\]
*87 DEC0\.SEL\[6\]
*88 DEC0\.SEL\[7\]
*89 WEBUF\[0\]\.X
*90 WEBUF\[1\]\.X
*91 WEBUF\[2\]\.X
*92 WEBUF\[3\]\.X
*93 WORD\[0\]\.W\.BYTE\[0\]\.B\.CLK
*94 WORD\[0\]\.W\.BYTE\[0\]\.B\.CLK_B
*95 WORD\[0\]\.W\.BYTE\[0\]\.B\.GCLK
*96 WORD\[0\]\.W\.BYTE\[0\]\.B\.Q_WIRE\[0\]
*97 WORD\[0\]\.W\.BYTE\[0\]\.B\.Q_WIRE\[1\]
*98 WORD\[0\]\.W\.BYTE\[0\]\.B\.Q_WIRE\[2\]
*99 WORD\[0\]\.W\.BYTE\[0\]\.B\.Q_WIRE\[3\]
*100 WORD\[0\]\.W\.BYTE\[0\]\.B\.Q_WIRE\[4\]
*101 WORD\[0\]\.W\.BYTE\[0\]\.B\.Q_WIRE\[5\]
*102 WORD\[0\]\.W\.BYTE\[0\]\.B\.Q_WIRE\[6\]
*103 WORD\[0\]\.W\.BYTE\[0\]\.B\.Q_WIRE\[7\]
*104 WORD\[0\]\.W\.BYTE\[0\]\.B\.SEL0
*105 WORD\[0\]\.W\.BYTE\[0\]\.B\.SEL0_B
*106 WORD\[0\]\.W\.BYTE\[0\]\.B\.WE0_WIRE
*107 WORD\[0\]\.W\.BYTE\[1\]\.B\.CLK_B
*108 WORD\[0\]\.W\.BYTE\[1\]\.B\.GCLK
*109 WORD\[0\]\.W\.BYTE\[1\]\.B\.Q_WIRE\[0\]
*110 WORD\[0\]\.W\.BYTE\[1\]\.B\.Q_WIRE\[1\]
*111 WORD\[0\]\.W\.BYTE\[1\]\.B\.Q_WIRE\[2\]
*112 WORD\[0\]\.W\.BYTE\[1\]\.B\.Q_WIRE\[3\]
*113 WORD\[0\]\.W\.BYTE\[1\]\.B\.Q_WIRE\[4\]
*114 WORD\[0\]\.W\.BYTE\[1\]\.B\.Q_WIRE\[5\]
*115 WORD\[0\]\.W\.BYTE\[1\]\.B\.Q_WIRE\[6\]
*116 WORD\[0\]\.W\.BYTE\[1\]\.B\.Q_WIRE\[7\]
*117 WORD\[0\]\.W\.BYTE\[1\]\.B\.SEL0_B
*118 WORD\[0\]\.W\.BYTE\[1\]\.B\.WE0_WIRE
*119 WORD\[0\]\.W\.BYTE\[2\]\.B\.CLK_B
*120 WORD\[0\]\.W\.BYTE\[2\]\.B\.GCLK
*121 WORD\[0\]\.W\.BYTE\[2\]\.B\.Q_WIRE\[0\]
*122 WORD\[0\]\.W\.BYTE\[2\]\.B\.Q_WIRE\[1\]
*123 WORD\[0\]\.W\.BYTE\[2\]\.B\.Q_WIRE\[2\]
*124 WORD\[0\]\.W\.BYTE\[2\]\.B\.Q_WIRE\[3\]
*125 WORD\[0\]\.W\.BYTE\[2\]\.B\.Q_WIRE\[4\]
*126 WORD\[0\]\.W\.BYTE\[2\]\.B\.Q_WIRE\[5\]
*127 WORD\[0\]\.W\.BYTE\[2\]\.B\.Q_WIRE\[6\]
*128 WORD\[0\]\.W\.BYTE\[2\]\.B\.Q_WIRE\[7\]
*129 WORD\[0\]\.W\.BYTE\[2\]\.B\.SEL0_B
*130 WORD\[0\]\.W\.BYTE\[2\]\.B\.WE0_WIRE
*131 WORD\[0\]\.W\.BYTE\[3\]\.B\.CLK_B
*132 WORD\[0\]\.W\.BYTE\[3\]\.B\.GCLK
*133 WORD\[0\]\.W\.BYTE\[3\]\.B\.Q_WIRE\[0\]
*134 WORD\[0\]\.W\.BYTE\[3\]\.B\.Q_WIRE\[1\]
*135 WORD\[0\]\.W\.BYTE\[3\]\.B\.Q_WIRE\[2\]
*136 WORD\[0\]\.W\.BYTE\[3\]\.B\.Q_WIRE\[3\]
*137 WORD\[0\]\.W\.BYTE\[3\]\.B\.Q_WIRE\[4\]
*138 WORD\[0\]\.W\.BYTE\[3\]\.B\.Q_WIRE\[5\]
*139 WORD\[0\]\.W\.BYTE\[3\]\.B\.Q_WIRE\[6\]
*140 WORD\[0\]\.W\.BYTE\[3\]\.B\.Q_WIRE\[7\]
*141 WORD\[0\]\.W\.BYTE\[3\]\.B\.SEL0_B
*142 WORD\[0\]\.W\.BYTE\[3\]\.B\.WE0_WIRE
*143 WORD\[1\]\.W\.BYTE\[0\]\.B\.CLK
*144 WORD\[1\]\.W\.BYTE\[0\]\.B\.CLK_B
*145 WORD\[1\]\.W\.BYTE\[0\]\.B\.GCLK
*146 WORD\[1\]\.W\.BYTE\[0\]\.B\.Q_WIRE\[0\]
*147 WORD\[1\]\.W\.BYTE\[0\]\.B\.Q_WIRE\[1\]
*148 WORD\[1\]\.W\.BYTE\[0\]\.B\.Q_WIRE\[2\]
*149 WORD\[1\]\.W\.BYTE\[0\]\.B\.Q_WIRE\[3\]
*150 WORD\[1\]\.W\.BYTE\[0\]\.B\.Q_WIRE\[4\]
*151 WORD\[1\]\.W\.BYTE\[0\]\.B\.Q_WIRE\[5\]
*152 WORD\[1\]\.W\.BYTE\[0\]\.B\.Q_WIRE\[6\]
*153 WORD\[1\]\.W\.BYTE\[0\]\.B\.Q_WIRE\[7\]
*154 WORD\[1\]\.W\.BYTE\[0\]\.B\.SEL0
*155 WORD\[1\]\.W\.BYTE\[0\]\.B\.SEL0_B
*156 WORD\[1\]\.W\.BYTE\[0\]\.B\.WE0_WIRE
*157 WORD\[1\]\.W\.BYTE\[1\]\.B\.CLK_B
*158 WORD\[1\]\.W\.BYTE\[1\]\.B\.GCLK
*159 WORD\[1\]\.W\.BYTE\[1\]\.B\.Q_WIRE\[0\]
*160 WORD\[1\]\.W\.BYTE\[1\]\.B\.Q_WIRE\[1\]
*161 WORD\[1\]\.W\.BYTE\[1\]\.B\.Q_WIRE\[2\]
*162 WORD\[1\]\.W\.BYTE\[1\]\.B\.Q_WIRE\[3\]
*163 WORD\[1\]\.W\.BYTE\[1\]\.B\.Q_WIRE\[4\]
*164 WORD\[1\]\.W\.BYTE\[1\]\.B\.Q_WIRE\[5\]
*165 WORD\[1\]\.W\.BYTE\[1\]\.B\.Q_WIRE\[6\]
*166 WORD\[1\]\.W\.BYTE\[1\]\.B\.Q_WIRE\[7\]
*167 WORD\[1\]\.W\.BYTE\[1\]\.B\.SEL0_B
*168 WORD\[1\]\.W\.BYTE\[1\]\.B\.WE0_WIRE
*169 WORD\[1\]\.W\.BYTE\[2\]\.B\.CLK_B
*170 WORD\[1\]\.W\.BYTE\[2\]\.B\.GCLK
*171 WORD\[1\]\.W\.BYTE\[2\]\.B\.Q_WIRE\[0\]
*172 WORD\[1\]\.W\.BYTE\[2\]\.B\.Q_WIRE\[1\]
*173 WORD\[1\]\.W\.BYTE\[2\]\.B\.Q_WIRE\[2\]
*174 WORD\[1\]\.W\.BYTE\[2\]\.B\.Q_WIRE\[3\]
*175 WORD\[1\]\.W\.BYTE\[2\]\.B\.Q_WIRE\[4\]
*176 WORD\[1\]\.W\.BYTE\[2\]\.B\.Q_WIRE\[5\]
*177 WORD\[1\]\.W\.BYTE\[2\]\.B\.Q_WIRE\[6\]
*178 WORD\[1\]\.W\.BYTE\[2\]\.B\.Q_WIRE\[7\]
*179 WORD\[1\]\.W\.BYTE\[2\]\.B\.SEL0_B
*180 WORD\[1\]\.W\.BYTE\[2\]\.B\.WE0_WIRE
*181 WORD\[1\]\.W\.BYTE\[3\]\.B\.CLK_B
*182 WORD\[1\]\.W\.BYTE\[3\]\.B\.GCLK
*183 WORD\[1\]\.W\.BYTE\[3\]\.B\.Q_WIRE\[0\]
*184 WORD\[1\]\.W\.BYTE\[3\]\.B\.Q_WIRE\[1\]
*185 WORD\[1\]\.W\.BYTE\[3\]\.B\.Q_WIRE\[2\]
*186 WORD\[1\]\.W\.BYTE\[3\]\.B\.Q_WIRE\[3\]
*187 WORD\[1\]\.W\.BYTE\[3\]\.B\.Q_WIRE\[4\]
*188 WORD\[1\]\.W\.BYTE\[3\]\.B\.Q_WIRE\[5\]
*189 WORD\[1\]\.W\.BYTE\[3\]\.B\.Q_WIRE\[6\]
*190 WORD\[1\]\.W\.BYTE\[3\]\.B\.Q_WIRE\[7\]
*191 WORD\[1\]\.W\.BYTE\[3\]\.B\.SEL0_B
*192 WORD\[1\]\.W\.BYTE\[3\]\.B\.WE0_WIRE
*193 WORD\[2\]\.W\.BYTE\[0\]\.B\.CLK
*194 WORD\[2\]\.W\.BYTE\[0\]\.B\.CLK_B
*195 WORD\[2\]\.W\.BYTE\[0\]\.B\.GCLK
*196 WORD\[2\]\.W\.BYTE\[0\]\.B\.Q_WIRE\[0\]
*197 WORD\[2\]\.W\.BYTE\[0\]\.B\.Q_WIRE\[1\]
*198 WORD\[2\]\.W\.BYTE\[0\]\.B\.Q_WIRE\[2\]
*199 WORD\[2\]\.W\.BYTE\[0\]\.B\.Q_WIRE\[3\]
*200 WORD\[2\]\.W\.BYTE\[0\]\.B\.Q_WIRE\[4\]
*201 WORD\[2\]\.W\.BYTE\[0\]\.B\.Q_WIRE\[5\]
*202 WORD\[2\]\.W\.BYTE\[0\]\.B\.Q_WIRE\[6\]
*203 WORD\[2\]\.W\.BYTE\[0\]\.B\.Q_WIRE\[7\]
*204 WORD\[2\]\.W\.BYTE\[0\]\.B\.SEL0
*205 WORD\[2\]\.W\.BYTE\[0\]\.B\.SEL0_B
*206 WORD\[2\]\.W\.BYTE\[0\]\.B\.WE0_WIRE
*207 WORD\[2\]\.W\.BYTE\[1\]\.B\.CLK_B
*208 WORD\[2\]\.W\.BYTE\[1\]\.B\.GCLK
*209 WORD\[2\]\.W\.BYTE\[1\]\.B\.Q_WIRE\[0\]
*210 WORD\[2\]\.W\.BYTE\[1\]\.B\.Q_WIRE\[1\]
*211 WORD\[2\]\.W\.BYTE\[1\]\.B\.Q_WIRE\[2\]
*212 WORD\[2\]\.W\.BYTE\[1\]\.B\.Q_WIRE\[3\]
*213 WORD\[2\]\.W\.BYTE\[1\]\.B\.Q_WIRE\[4\]
*214 WORD\[2\]\.W\.BYTE\[1\]\.B\.Q_WIRE\[5\]
*215 WORD\[2\]\.W\.BYTE\[1\]\.B\.Q_WIRE\[6\]
*216 WORD\[2\]\.W\.BYTE\[1\]\.B\.Q_WIRE\[7\]
*217 WORD\[2\]\.W\.BYTE\[1\]\.B\.SEL0_B
*218 WORD\[2\]\.W\.BYTE\[1\]\.B\.WE0_WIRE
*219 WORD\[2\]\.W\.BYTE\[2\]\.B\.CLK_B
*220 WORD\[2\]\.W\.BYTE\[2\]\.B\.GCLK
*221 WORD\[2\]\.W\.BYTE\[2\]\.B\.Q_WIRE\[0\]
*222 WORD\[2\]\.W\.BYTE\[2\]\.B\.Q_WIRE\[1\]
*223 WORD\[2\]\.W\.BYTE\[2\]\.B\.Q_WIRE\[2\]
*224 WORD\[2\]\.W\.BYTE\[2\]\.B\.Q_WIRE\[3\]
*225 WORD\[2\]\.W\.BYTE\[2\]\.B\.Q_WIRE\[4\]
*226 WORD\[2\]\.W\.BYTE\[2\]\.B\.Q_WIRE\[5\]
*227 WORD\[2\]\.W\.BYTE\[2\]\.B\.Q_WIRE\[6\]
*228 WORD\[2\]\.W\.BYTE\[2\]\.B\.Q_WIRE\[7\]
*229 WORD\[2\]\.W\.BYTE\[2\]\.B\.SEL0_B
*230 WORD\[2\]\.W\.BYTE\[2\]\.B\.WE0_WIRE
*231 WORD\[2\]\.W\.BYTE\[3\]\.B\.CLK_B
*232 WORD\[2\]\.W\.BYTE\[3\]\.B\.GCLK
*233 WORD\[2\]\.W\.BYTE\[3\]\.B\.Q_WIRE\[0\]
*234 WORD\[2\]\.W\.BYTE\[3\]\.B\.Q_WIRE\[1\]
*235 WORD\[2\]\.W\.BYTE\[3\]\.B\.Q_WIRE\[2\]
*236 WORD\[2\]\.W\.BYTE\[3\]\.B\.Q_WIRE\[3\]
*237 WORD\[2\]\.W\.BYTE\[3\]\.B\.Q_WIRE\[4\]
*238 WORD\[2\]\.W\.BYTE\[3\]\.B\.Q_WIRE\[5\]
*239 WORD\[2\]\.W\.BYTE\[3\]\.B\.Q_WIRE\[6\]
*240 WORD\[2\]\.W\.BYTE\[3\]\.B\.Q_WIRE\[7\]
*241 WORD\[2\]\.W\.BYTE\[3\]\.B\.SEL0_B
*242 WORD\[2\]\.W\.BYTE\[3\]\.B\.WE0_WIRE
*243 WORD\[3\]\.W\.BYTE\[0\]\.B\.CLK
*244 WORD\[3\]\.W\.BYTE\[0\]\.B\.CLK_B
*245 WORD\[3\]\.W\.BYTE\[0\]\.B\.GCLK
*246 WORD\[3\]\.W\.BYTE\[0\]\.B\.Q_WIRE\[0\]
*247 WORD\[3\]\.W\.BYTE\[0\]\.B\.Q_WIRE\[1\]
*248 WORD\[3\]\.W\.BYTE\[0\]\.B\.Q_WIRE\[2\]
*249 WORD\[3\]\.W\.BYTE\[0\]\.B\.Q_WIRE\[3\]
*250 WORD\[3\]\.W\.BYTE\[0\]\.B\.Q_WIRE\[4\]
*251 WORD\[3\]\.W\.BYTE\[0\]\.B\.Q_WIRE\[5\]
*252 WORD\[3\]\.W\.BYTE\[0\]\.B\.Q_WIRE\[6\]
*253 WORD\[3\]\.W\.BYTE\[0\]\.B\.Q_WIRE\[7\]
*254 WORD\[3\]\.W\.BYTE\[0\]\.B\.SEL0
*255 WORD\[3\]\.W\.BYTE\[0\]\.B\.SEL0_B
*256 WORD\[3\]\.W\.BYTE\[0\]\.B\.WE0_WIRE
*257 WORD\[3\]\.W\.BYTE\[1\]\.B\.CLK_B
*258 WORD\[3\]\.W\.BYTE\[1\]\.B\.GCLK
*259 WORD\[3\]\.W\.BYTE\[1\]\.B\.Q_WIRE\[0\]
*260 WORD\[3\]\.W\.BYTE\[1\]\.B\.Q_WIRE\[1\]
*261 WORD\[3\]\.W\.BYTE\[1\]\.B\.Q_WIRE\[2\]
*262 WORD\[3\]\.W\.BYTE\[1\]\.B\.Q_WIRE\[3\]
*263 WORD\[3\]\.W\.BYTE\[1\]\.B\.Q_WIRE\[4\]
*264 WORD\[3\]\.W\.BYTE\[1\]\.B\.Q_WIRE\[5\]
*265 WORD\[3\]\.W\.BYTE\[1\]\.B\.Q_WIRE\[6\]
*266 WORD\[3\]\.W\.BYTE\[1\]\.B\.Q_WIRE\[7\]
*267 WORD\[3\]\.W\.BYTE\[1\]\.B\.SEL0_B
*268 WORD\[3\]\.W\.BYTE\[1\]\.B\.WE0_WIRE
*269 WORD\[3\]\.W\.BYTE\[2\]\.B\.CLK_B
*270 WORD\[3\]\.W\.BYTE\[2\]\.B\.GCLK
*271 WORD\[3\]\.W\.BYTE\[2\]\.B\.Q_WIRE\[0\]
*272 WORD\[3\]\.W\.BYTE\[2\]\.B\.Q_WIRE\[1\]
*273 WORD\[3\]\.W\.BYTE\[2\]\.B\.Q_WIRE\[2\]
*274 WORD\[3\]\.W\.BYTE\[2\]\.B\.Q_WIRE\[3\]
*275 WORD\[3\]\.W\.BYTE\[2\]\.B\.Q_WIRE\[4\]
*276 WORD\[3\]\.W\.BYTE\[2\]\.B\.Q_WIRE\[5\]
*277 WORD\[3\]\.W\.BYTE\[2\]\.B\.Q_WIRE\[6\]
*278 WORD\[3\]\.W\.BYTE\[2\]\.B\.Q_WIRE\[7\]
*279 WORD\[3\]\.W\.BYTE\[2\]\.B\.SEL0_B
*280 WORD\[3\]\.W\.BYTE\[2\]\.B\.WE0_WIRE
*281 WORD\[3\]\.W\.BYTE\[3\]\.B\.CLK_B
*282 WORD\[3\]\.W\.BYTE\[3\]\.B\.GCLK
*283 WORD\[3\]\.W\.BYTE\[3\]\.B\.Q_WIRE\[0\]
*284 WORD\[3\]\.W\.BYTE\[3\]\.B\.Q_WIRE\[1\]
*285 WORD\[3\]\.W\.BYTE\[3\]\.B\.Q_WIRE\[2\]
*286 WORD\[3\]\.W\.BYTE\[3\]\.B\.Q_WIRE\[3\]
*287 WORD\[3\]\.W\.BYTE\[3\]\.B\.Q_WIRE\[4\]
*288 WORD\[3\]\.W\.BYTE\[3\]\.B\.Q_WIRE\[5\]
*289 WORD\[3\]\.W\.BYTE\[3\]\.B\.Q_WIRE\[6\]
*290 WORD\[3\]\.W\.BYTE\[3\]\.B\.Q_WIRE\[7\]
*291 WORD\[3\]\.W\.BYTE\[3\]\.B\.SEL0_B
*292 WORD\[3\]\.W\.BYTE\[3\]\.B\.WE0_WIRE
*293 WORD\[4\]\.W\.BYTE\[0\]\.B\.CLK
*294 WORD\[4\]\.W\.BYTE\[0\]\.B\.CLK_B
*295 WORD\[4\]\.W\.BYTE\[0\]\.B\.GCLK
*296 WORD\[4\]\.W\.BYTE\[0\]\.B\.Q_WIRE\[0\]
*297 WORD\[4\]\.W\.BYTE\[0\]\.B\.Q_WIRE\[1\]
*298 WORD\[4\]\.W\.BYTE\[0\]\.B\.Q_WIRE\[2\]
*299 WORD\[4\]\.W\.BYTE\[0\]\.B\.Q_WIRE\[3\]
*300 WORD\[4\]\.W\.BYTE\[0\]\.B\.Q_WIRE\[4\]
*301 WORD\[4\]\.W\.BYTE\[0\]\.B\.Q_WIRE\[5\]
*302 WORD\[4\]\.W\.BYTE\[0\]\.B\.Q_WIRE\[6\]
*303 WORD\[4\]\.W\.BYTE\[0\]\.B\.Q_WIRE\[7\]
*304 WORD\[4\]\.W\.BYTE\[0\]\.B\.SEL0
*305 WORD\[4\]\.W\.BYTE\[0\]\.B\.SEL0_B
*306 WORD\[4\]\.W\.BYTE\[0\]\.B\.WE0_WIRE
*307 WORD\[4\]\.W\.BYTE\[1\]\.B\.CLK_B
*308 WORD\[4\]\.W\.BYTE\[1\]\.B\.GCLK
*309 WORD\[4\]\.W\.BYTE\[1\]\.B\.Q_WIRE\[0\]
*310 WORD\[4\]\.W\.BYTE\[1\]\.B\.Q_WIRE\[1\]
*311 WORD\[4\]\.W\.BYTE\[1\]\.B\.Q_WIRE\[2\]
*312 WORD\[4\]\.W\.BYTE\[1\]\.B\.Q_WIRE\[3\]
*313 WORD\[4\]\.W\.BYTE\[1\]\.B\.Q_WIRE\[4\]
*314 WORD\[4\]\.W\.BYTE\[1\]\.B\.Q_WIRE\[5\]
*315 WORD\[4\]\.W\.BYTE\[1\]\.B\.Q_WIRE\[6\]
*316 WORD\[4\]\.W\.BYTE\[1\]\.B\.Q_WIRE\[7\]
*317 WORD\[4\]\.W\.BYTE\[1\]\.B\.SEL0_B
*318 WORD\[4\]\.W\.BYTE\[1\]\.B\.WE0_WIRE
*319 WORD\[4\]\.W\.BYTE\[2\]\.B\.CLK_B
*320 WORD\[4\]\.W\.BYTE\[2\]\.B\.GCLK
*321 WORD\[4\]\.W\.BYTE\[2\]\.B\.Q_WIRE\[0\]
*322 WORD\[4\]\.W\.BYTE\[2\]\.B\.Q_WIRE\[1\]
*323 WORD\[4\]\.W\.BYTE\[2\]\.B\.Q_WIRE\[2\]
*324 WORD\[4\]\.W\.BYTE\[2\]\.B\.Q_WIRE\[3\]
*325 WORD\[4\]\.W\.BYTE\[2\]\.B\.Q_WIRE\[4\]
*326 WORD\[4\]\.W\.BYTE\[2\]\.B\.Q_WIRE\[5\]
*327 WORD\[4\]\.W\.BYTE\[2\]\.B\.Q_WIRE\[6\]
*328 WORD\[4\]\.W\.BYTE\[2\]\.B\.Q_WIRE\[7\]
*329 WORD\[4\]\.W\.BYTE\[2\]\.B\.SEL0_B
*330 WORD\[4\]\.W\.BYTE\[2\]\.B\.WE0_WIRE
*331 WORD\[4\]\.W\.BYTE\[3\]\.B\.CLK_B
*332 WORD\[4\]\.W\.BYTE\[3\]\.B\.GCLK
*333 WORD\[4\]\.W\.BYTE\[3\]\.B\.Q_WIRE\[0\]
*334 WORD\[4\]\.W\.BYTE\[3\]\.B\.Q_WIRE\[1\]
*335 WORD\[4\]\.W\.BYTE\[3\]\.B\.Q_WIRE\[2\]
*336 WORD\[4\]\.W\.BYTE\[3\]\.B\.Q_WIRE\[3\]
*337 WORD\[4\]\.W\.BYTE\[3\]\.B\.Q_WIRE\[4\]
*338 WORD\[4\]\.W\.BYTE\[3\]\.B\.Q_WIRE\[5\]
*339 WORD\[4\]\.W\.BYTE\[3\]\.B\.Q_WIRE\[6\]
*340 WORD\[4\]\.W\.BYTE\[3\]\.B\.Q_WIRE\[7\]
*341 WORD\[4\]\.W\.BYTE\[3\]\.B\.SEL0_B
*342 WORD\[4\]\.W\.BYTE\[3\]\.B\.WE0_WIRE
*343 WORD\[5\]\.W\.BYTE\[0\]\.B\.CLK
*344 WORD\[5\]\.W\.BYTE\[0\]\.B\.CLK_B
*345 WORD\[5\]\.W\.BYTE\[0\]\.B\.GCLK
*346 WORD\[5\]\.W\.BYTE\[0\]\.B\.Q_WIRE\[0\]
*347 WORD\[5\]\.W\.BYTE\[0\]\.B\.Q_WIRE\[1\]
*348 WORD\[5\]\.W\.BYTE\[0\]\.B\.Q_WIRE\[2\]
*349 WORD\[5\]\.W\.BYTE\[0\]\.B\.Q_WIRE\[3\]
*350 WORD\[5\]\.W\.BYTE\[0\]\.B\.Q_WIRE\[4\]
*351 WORD\[5\]\.W\.BYTE\[0\]\.B\.Q_WIRE\[5\]
*352 WORD\[5\]\.W\.BYTE\[0\]\.B\.Q_WIRE\[6\]
*353 WORD\[5\]\.W\.BYTE\[0\]\.B\.Q_WIRE\[7\]
*354 WORD\[5\]\.W\.BYTE\[0\]\.B\.SEL0
*355 WORD\[5\]\.W\.BYTE\[0\]\.B\.SEL0_B
*356 WORD\[5\]\.W\.BYTE\[0\]\.B\.WE0_WIRE
*357 WORD\[5\]\.W\.BYTE\[1\]\.B\.CLK_B
*358 WORD\[5\]\.W\.BYTE\[1\]\.B\.GCLK
*359 WORD\[5\]\.W\.BYTE\[1\]\.B\.Q_WIRE\[0\]
*360 WORD\[5\]\.W\.BYTE\[1\]\.B\.Q_WIRE\[1\]
*361 WORD\[5\]\.W\.BYTE\[1\]\.B\.Q_WIRE\[2\]
*362 WORD\[5\]\.W\.BYTE\[1\]\.B\.Q_WIRE\[3\]
*363 WORD\[5\]\.W\.BYTE\[1\]\.B\.Q_WIRE\[4\]
*364 WORD\[5\]\.W\.BYTE\[1\]\.B\.Q_WIRE\[5\]
*365 WORD\[5\]\.W\.BYTE\[1\]\.B\.Q_WIRE\[6\]
*366 WORD\[5\]\.W\.BYTE\[1\]\.B\.Q_WIRE\[7\]
*367 WORD\[5\]\.W\.BYTE\[1\]\.B\.SEL0_B
*368 WORD\[5\]\.W\.BYTE\[1\]\.B\.WE0_WIRE
*369 WORD\[5\]\.W\.BYTE\[2\]\.B\.CLK_B
*370 WORD\[5\]\.W\.BYTE\[2\]\.B\.GCLK
*371 WORD\[5\]\.W\.BYTE\[2\]\.B\.Q_WIRE\[0\]
*372 WORD\[5\]\.W\.BYTE\[2\]\.B\.Q_WIRE\[1\]
*373 WORD\[5\]\.W\.BYTE\[2\]\.B\.Q_WIRE\[2\]
*374 WORD\[5\]\.W\.BYTE\[2\]\.B\.Q_WIRE\[3\]
*375 WORD\[5\]\.W\.BYTE\[2\]\.B\.Q_WIRE\[4\]
*376 WORD\[5\]\.W\.BYTE\[2\]\.B\.Q_WIRE\[5\]
*377 WORD\[5\]\.W\.BYTE\[2\]\.B\.Q_WIRE\[6\]
*378 WORD\[5\]\.W\.BYTE\[2\]\.B\.Q_WIRE\[7\]
*379 WORD\[5\]\.W\.BYTE\[2\]\.B\.SEL0_B
*380 WORD\[5\]\.W\.BYTE\[2\]\.B\.WE0_WIRE
*381 WORD\[5\]\.W\.BYTE\[3\]\.B\.CLK_B
*382 WORD\[5\]\.W\.BYTE\[3\]\.B\.GCLK
*383 WORD\[5\]\.W\.BYTE\[3\]\.B\.Q_WIRE\[0\]
*384 WORD\[5\]\.W\.BYTE\[3\]\.B\.Q_WIRE\[1\]
*385 WORD\[5\]\.W\.BYTE\[3\]\.B\.Q_WIRE\[2\]
*386 WORD\[5\]\.W\.BYTE\[3\]\.B\.Q_WIRE\[3\]
*387 WORD\[5\]\.W\.BYTE\[3\]\.B\.Q_WIRE\[4\]
*388 WORD\[5\]\.W\.BYTE\[3\]\.B\.Q_WIRE\[5\]
*389 WORD\[5\]\.W\.BYTE\[3\]\.B\.Q_WIRE\[6\]
*390 WORD\[5\]\.W\.BYTE\[3\]\.B\.Q_WIRE\[7\]
*391 WORD\[5\]\.W\.BYTE\[3\]\.B\.SEL0_B
*392 WORD\[5\]\.W\.BYTE\[3\]\.B\.WE0_WIRE
*393 WORD\[6\]\.W\.BYTE\[0\]\.B\.CLK
*394 WORD\[6\]\.W\.BYTE\[0\]\.B\.CLK_B
*395 WORD\[6\]\.W\.BYTE\[0\]\.B\.GCLK
*396 WORD\[6\]\.W\.BYTE\[0\]\.B\.Q_WIRE\[0\]
*397 WORD\[6\]\.W\.BYTE\[0\]\.B\.Q_WIRE\[1\]
*398 WORD\[6\]\.W\.BYTE\[0\]\.B\.Q_WIRE\[2\]
*399 WORD\[6\]\.W\.BYTE\[0\]\.B\.Q_WIRE\[3\]
*400 WORD\[6\]\.W\.BYTE\[0\]\.B\.Q_WIRE\[4\]
*401 WORD\[6\]\.W\.BYTE\[0\]\.B\.Q_WIRE\[5\]
*402 WORD\[6\]\.W\.BYTE\[0\]\.B\.Q_WIRE\[6\]
*403 WORD\[6\]\.W\.BYTE\[0\]\.B\.Q_WIRE\[7\]
*404 WORD\[6\]\.W\.BYTE\[0\]\.B\.SEL0
*405 WORD\[6\]\.W\.BYTE\[0\]\.B\.SEL0_B
*406 WORD\[6\]\.W\.BYTE\[0\]\.B\.WE0_WIRE
*407 WORD\[6\]\.W\.BYTE\[1\]\.B\.CLK_B
*408 WORD\[6\]\.W\.BYTE\[1\]\.B\.GCLK
*409 WORD\[6\]\.W\.BYTE\[1\]\.B\.Q_WIRE\[0\]
*410 WORD\[6\]\.W\.BYTE\[1\]\.B\.Q_WIRE\[1\]
*411 WORD\[6\]\.W\.BYTE\[1\]\.B\.Q_WIRE\[2\]
*412 WORD\[6\]\.W\.BYTE\[1\]\.B\.Q_WIRE\[3\]
*413 WORD\[6\]\.W\.BYTE\[1\]\.B\.Q_WIRE\[4\]
*414 WORD\[6\]\.W\.BYTE\[1\]\.B\.Q_WIRE\[5\]
*415 WORD\[6\]\.W\.BYTE\[1\]\.B\.Q_WIRE\[6\]
*416 WORD\[6\]\.W\.BYTE\[1\]\.B\.Q_WIRE\[7\]
*417 WORD\[6\]\.W\.BYTE\[1\]\.B\.SEL0_B
*418 WORD\[6\]\.W\.BYTE\[1\]\.B\.WE0_WIRE
*419 WORD\[6\]\.W\.BYTE\[2\]\.B\.CLK_B
*420 WORD\[6\]\.W\.BYTE\[2\]\.B\.GCLK
*421 WORD\[6\]\.W\.BYTE\[2\]\.B\.Q_WIRE\[0\]
*422 WORD\[6\]\.W\.BYTE\[2\]\.B\.Q_WIRE\[1\]
*423 WORD\[6\]\.W\.BYTE\[2\]\.B\.Q_WIRE\[2\]
*424 WORD\[6\]\.W\.BYTE\[2\]\.B\.Q_WIRE\[3\]
*425 WORD\[6\]\.W\.BYTE\[2\]\.B\.Q_WIRE\[4\]
*426 WORD\[6\]\.W\.BYTE\[2\]\.B\.Q_WIRE\[5\]
*427 WORD\[6\]\.W\.BYTE\[2\]\.B\.Q_WIRE\[6\]
*428 WORD\[6\]\.W\.BYTE\[2\]\.B\.Q_WIRE\[7\]
*429 WORD\[6\]\.W\.BYTE\[2\]\.B\.SEL0_B
*430 WORD\[6\]\.W\.BYTE\[2\]\.B\.WE0_WIRE
*431 WORD\[6\]\.W\.BYTE\[3\]\.B\.CLK_B
*432 WORD\[6\]\.W\.BYTE\[3\]\.B\.GCLK
*433 WORD\[6\]\.W\.BYTE\[3\]\.B\.Q_WIRE\[0\]
*434 WORD\[6\]\.W\.BYTE\[3\]\.B\.Q_WIRE\[1\]
*435 WORD\[6\]\.W\.BYTE\[3\]\.B\.Q_WIRE\[2\]
*436 WORD\[6\]\.W\.BYTE\[3\]\.B\.Q_WIRE\[3\]
*437 WORD\[6\]\.W\.BYTE\[3\]\.B\.Q_WIRE\[4\]
*438 WORD\[6\]\.W\.BYTE\[3\]\.B\.Q_WIRE\[5\]
*439 WORD\[6\]\.W\.BYTE\[3\]\.B\.Q_WIRE\[6\]
*440 WORD\[6\]\.W\.BYTE\[3\]\.B\.Q_WIRE\[7\]
*441 WORD\[6\]\.W\.BYTE\[3\]\.B\.SEL0_B
*442 WORD\[6\]\.W\.BYTE\[3\]\.B\.WE0_WIRE
*443 WORD\[7\]\.W\.BYTE\[0\]\.B\.CLK
*444 WORD\[7\]\.W\.BYTE\[0\]\.B\.CLK_B
*445 WORD\[7\]\.W\.BYTE\[0\]\.B\.GCLK
*446 WORD\[7\]\.W\.BYTE\[0\]\.B\.Q_WIRE\[0\]
*447 WORD\[7\]\.W\.BYTE\[0\]\.B\.Q_WIRE\[1\]
*448 WORD\[7\]\.W\.BYTE\[0\]\.B\.Q_WIRE\[2\]
*449 WORD\[7\]\.W\.BYTE\[0\]\.B\.Q_WIRE\[3\]
*450 WORD\[7\]\.W\.BYTE\[0\]\.B\.Q_WIRE\[4\]
*451 WORD\[7\]\.W\.BYTE\[0\]\.B\.Q_WIRE\[5\]
*452 WORD\[7\]\.W\.BYTE\[0\]\.B\.Q_WIRE\[6\]
*453 WORD\[7\]\.W\.BYTE\[0\]\.B\.Q_WIRE\[7\]
*454 WORD\[7\]\.W\.BYTE\[0\]\.B\.SEL0
*455 WORD\[7\]\.W\.BYTE\[0\]\.B\.SEL0_B
*456 WORD\[7\]\.W\.BYTE\[0\]\.B\.WE0_WIRE
*457 WORD\[7\]\.W\.BYTE\[1\]\.B\.CLK_B
*458 WORD\[7\]\.W\.BYTE\[1\]\.B\.GCLK
*459 WORD\[7\]\.W\.BYTE\[1\]\.B\.Q_WIRE\[0\]
*460 WORD\[7\]\.W\.BYTE\[1\]\.B\.Q_WIRE\[1\]
*461 WORD\[7\]\.W\.BYTE\[1\]\.B\.Q_WIRE\[2\]
*462 WORD\[7\]\.W\.BYTE\[1\]\.B\.Q_WIRE\[3\]
*463 WORD\[7\]\.W\.BYTE\[1\]\.B\.Q_WIRE\[4\]
*464 WORD\[7\]\.W\.BYTE\[1\]\.B\.Q_WIRE\[5\]
*465 WORD\[7\]\.W\.BYTE\[1\]\.B\.Q_WIRE\[6\]
*466 WORD\[7\]\.W\.BYTE\[1\]\.B\.Q_WIRE\[7\]
*467 WORD\[7\]\.W\.BYTE\[1\]\.B\.SEL0_B
*468 WORD\[7\]\.W\.BYTE\[1\]\.B\.WE0_WIRE
*469 WORD\[7\]\.W\.BYTE\[2\]\.B\.CLK_B
*470 WORD\[7\]\.W\.BYTE\[2\]\.B\.GCLK
*471 WORD\[7\]\.W\.BYTE\[2\]\.B\.Q_WIRE\[0\]
*472 WORD\[7\]\.W\.BYTE\[2\]\.B\.Q_WIRE\[1\]
*473 WORD\[7\]\.W\.BYTE\[2\]\.B\.Q_WIRE\[2\]
*474 WORD\[7\]\.W\.BYTE\[2\]\.B\.Q_WIRE\[3\]
*475 WORD\[7\]\.W\.BYTE\[2\]\.B\.Q_WIRE\[4\]
*476 WORD\[7\]\.W\.BYTE\[2\]\.B\.Q_WIRE\[5\]
*477 WORD\[7\]\.W\.BYTE\[2\]\.B\.Q_WIRE\[6\]
*478 WORD\[7\]\.W\.BYTE\[2\]\.B\.Q_WIRE\[7\]
*479 WORD\[7\]\.W\.BYTE\[2\]\.B\.SEL0_B
*480 WORD\[7\]\.W\.BYTE\[2\]\.B\.WE0_WIRE
*481 WORD\[7\]\.W\.BYTE\[3\]\.B\.CLK_B
*482 WORD\[7\]\.W\.BYTE\[3\]\.B\.GCLK
*483 WORD\[7\]\.W\.BYTE\[3\]\.B\.Q_WIRE\[0\]
*484 WORD\[7\]\.W\.BYTE\[3\]\.B\.Q_WIRE\[1\]
*485 WORD\[7\]\.W\.BYTE\[3\]\.B\.Q_WIRE\[2\]
*486 WORD\[7\]\.W\.BYTE\[3\]\.B\.Q_WIRE\[3\]
*487 WORD\[7\]\.W\.BYTE\[3\]\.B\.Q_WIRE\[4\]
*488 WORD\[7\]\.W\.BYTE\[3\]\.B\.Q_WIRE\[5\]
*489 WORD\[7\]\.W\.BYTE\[3\]\.B\.Q_WIRE\[6\]
*490 WORD\[7\]\.W\.BYTE\[3\]\.B\.Q_WIRE\[7\]
*491 WORD\[7\]\.W\.BYTE\[3\]\.B\.SEL0_B
*492 WORD\[7\]\.W\.BYTE\[3\]\.B\.WE0_WIRE
*493 CLKBUF\.__cell__
*494 DEC0\.ABUF\[0\]
*495 DEC0\.ABUF\[1\]
*496 DEC0\.ABUF\[2\]
*497 DEC0\.AND0
*498 DEC0\.AND1
*499 DEC0\.AND2
*500 DEC0\.AND3
*501 DEC0\.AND4
*502 DEC0\.AND5
*503 DEC0\.AND6
*504 DEC0\.AND7
*505 DEC0\.ENBUF
*506 WEBUF\[0\]\.__cell__
*507 WEBUF\[1\]\.__cell__
*508 WEBUF\[2\]\.__cell__
*509 WEBUF\[3\]\.__cell__
*510 WORD\[0\]\.W\.BYTE\[0\]\.B\.BIT\[0\]\.OBUF0
*511 WORD\[0\]\.W\.BYTE\[0\]\.B\.BIT\[0\]\.genblk1\.STORAGE
*512 WORD\[0\]\.W\.BYTE\[0\]\.B\.BIT\[1\]\.OBUF0
*513 WORD\[0\]\.W\.BYTE\[0\]\.B\.BIT\[1\]\.genblk1\.STORAGE
*514 WORD\[0\]\.W\.BYTE\[0\]\.B\.BIT\[2\]\.OBUF0
*515 WORD\[0\]\.W\.BYTE\[0\]\.B\.BIT\[2\]\.genblk1\.STORAGE
*516 WORD\[0\]\.W\.BYTE\[0\]\.B\.BIT\[3\]\.OBUF0
*517 WORD\[0\]\.W\.BYTE\[0\]\.B\.BIT\[3\]\.genblk1\.STORAGE
*518 WORD\[0\]\.W\.BYTE\[0\]\.B\.BIT\[4\]\.OBUF0
*519 WORD\[0\]\.W\.BYTE\[0\]\.B\.BIT\[4\]\.genblk1\.STORAGE
*520 WORD\[0\]\.W\.BYTE\[0\]\.B\.BIT\[5\]\.OBUF0
*521 WORD\[0\]\.W\.BYTE\[0\]\.B\.BIT\[5\]\.genblk1\.STORAGE
*522 WORD\[0\]\.W\.BYTE\[0\]\.B\.BIT\[6\]\.OBUF0
*523 WORD\[0\]\.W\.BYTE\[0\]\.B\.BIT\[6\]\.genblk1\.STORAGE
*524 WORD\[0\]\.W\.BYTE\[0\]\.B\.BIT\[7\]\.OBUF0
*525 WORD\[0\]\.W\.BYTE\[0\]\.B\.BIT\[7\]\.genblk1\.STORAGE
*526 WORD\[0\]\.W\.BYTE\[0\]\.B\.CGAND
*527 WORD\[0\]\.W\.BYTE\[0\]\.B\.DIODE_CLK
*528 WORD\[0\]\.W\.BYTE\[0\]\.B\.SEL0INV
*529 WORD\[0\]\.W\.BYTE\[0\]\.B\.genblk1\.CG
*530 WORD\[0\]\.W\.BYTE\[0\]\.B\.genblk1\.CLKINV
*531 WORD\[0\]\.W\.BYTE\[1\]\.B\.BIT\[0\]\.OBUF0
*532 WORD\[0\]\.W\.BYTE\[1\]\.B\.BIT\[0\]\.genblk1\.STORAGE
*533 WORD\[0\]\.W\.BYTE\[1\]\.B\.BIT\[1\]\.OBUF0
*534 WORD\[0\]\.W\.BYTE\[1\]\.B\.BIT\[1\]\.genblk1\.STORAGE
*535 WORD\[0\]\.W\.BYTE\[1\]\.B\.BIT\[2\]\.OBUF0
*536 WORD\[0\]\.W\.BYTE\[1\]\.B\.BIT\[2\]\.genblk1\.STORAGE
*537 WORD\[0\]\.W\.BYTE\[1\]\.B\.BIT\[3\]\.OBUF0
*538 WORD\[0\]\.W\.BYTE\[1\]\.B\.BIT\[3\]\.genblk1\.STORAGE
*539 WORD\[0\]\.W\.BYTE\[1\]\.B\.BIT\[4\]\.OBUF0
*540 WORD\[0\]\.W\.BYTE\[1\]\.B\.BIT\[4\]\.genblk1\.STORAGE
*541 WORD\[0\]\.W\.BYTE\[1\]\.B\.BIT\[5\]\.OBUF0
*542 WORD\[0\]\.W\.BYTE\[1\]\.B\.BIT\[5\]\.genblk1\.STORAGE
*543 WORD\[0\]\.W\.BYTE\[1\]\.B\.BIT\[6\]\.OBUF0
*544 WORD\[0\]\.W\.BYTE\[1\]\.B\.BIT\[6\]\.genblk1\.STORAGE
*545 WORD\[0\]\.W\.BYTE\[1\]\.B\.BIT\[7\]\.OBUF0
*546 WORD\[0\]\.W\.BYTE\[1\]\.B\.BIT\[7\]\.genblk1\.STORAGE
*547 WORD\[0\]\.W\.BYTE\[1\]\.B\.CGAND
*548 WORD\[0\]\.W\.BYTE\[1\]\.B\.DIODE_CLK
*549 WORD\[0\]\.W\.BYTE\[1\]\.B\.SEL0INV
*550 WORD\[0\]\.W\.BYTE\[1\]\.B\.genblk1\.CG
*551 WORD\[0\]\.W\.BYTE\[1\]\.B\.genblk1\.CLKINV
*552 WORD\[0\]\.W\.BYTE\[2\]\.B\.BIT\[0\]\.OBUF0
*553 WORD\[0\]\.W\.BYTE\[2\]\.B\.BIT\[0\]\.genblk1\.STORAGE
*554 WORD\[0\]\.W\.BYTE\[2\]\.B\.BIT\[1\]\.OBUF0
*555 WORD\[0\]\.W\.BYTE\[2\]\.B\.BIT\[1\]\.genblk1\.STORAGE
*556 WORD\[0\]\.W\.BYTE\[2\]\.B\.BIT\[2\]\.OBUF0
*557 WORD\[0\]\.W\.BYTE\[2\]\.B\.BIT\[2\]\.genblk1\.STORAGE
*558 WORD\[0\]\.W\.BYTE\[2\]\.B\.BIT\[3\]\.OBUF0
*559 WORD\[0\]\.W\.BYTE\[2\]\.B\.BIT\[3\]\.genblk1\.STORAGE
*560 WORD\[0\]\.W\.BYTE\[2\]\.B\.BIT\[4\]\.OBUF0
*561 WORD\[0\]\.W\.BYTE\[2\]\.B\.BIT\[4\]\.genblk1\.STORAGE
*562 WORD\[0\]\.W\.BYTE\[2\]\.B\.BIT\[5\]\.OBUF0
*563 WORD\[0\]\.W\.BYTE\[2\]\.B\.BIT\[5\]\.genblk1\.STORAGE
*564 WORD\[0\]\.W\.BYTE\[2\]\.B\.BIT\[6\]\.OBUF0
*565 WORD\[0\]\.W\.BYTE\[2\]\.B\.BIT\[6\]\.genblk1\.STORAGE
*566 WORD\[0\]\.W\.BYTE\[2\]\.B\.BIT\[7\]\.OBUF0
*567 WORD\[0\]\.W\.BYTE\[2\]\.B\.BIT\[7\]\.genblk1\.STORAGE
*568 WORD\[0\]\.W\.BYTE\[2\]\.B\.CGAND
*569 WORD\[0\]\.W\.BYTE\[2\]\.B\.DIODE_CLK
*570 WORD\[0\]\.W\.BYTE\[2\]\.B\.SEL0INV
*571 WORD\[0\]\.W\.BYTE\[2\]\.B\.genblk1\.CG
*572 WORD\[0\]\.W\.BYTE\[2\]\.B\.genblk1\.CLKINV
*573 WORD\[0\]\.W\.BYTE\[3\]\.B\.BIT\[0\]\.OBUF0
*574 WORD\[0\]\.W\.BYTE\[3\]\.B\.BIT\[0\]\.genblk1\.STORAGE
*575 WORD\[0\]\.W\.BYTE\[3\]\.B\.BIT\[1\]\.OBUF0
*576 WORD\[0\]\.W\.BYTE\[3\]\.B\.BIT\[1\]\.genblk1\.STORAGE
*577 WORD\[0\]\.W\.BYTE\[3\]\.B\.BIT\[2\]\.OBUF0
*578 WORD\[0\]\.W\.BYTE\[3\]\.B\.BIT\[2\]\.genblk1\.STORAGE
*579 WORD\[0\]\.W\.BYTE\[3\]\.B\.BIT\[3\]\.OBUF0
*580 WORD\[0\]\.W\.BYTE\[3\]\.B\.BIT\[3\]\.genblk1\.STORAGE
*581 WORD\[0\]\.W\.BYTE\[3\]\.B\.BIT\[4\]\.OBUF0
*582 WORD\[0\]\.W\.BYTE\[3\]\.B\.BIT\[4\]\.genblk1\.STORAGE
*583 WORD\[0\]\.W\.BYTE\[3\]\.B\.BIT\[5\]\.OBUF0
*584 WORD\[0\]\.W\.BYTE\[3\]\.B\.BIT\[5\]\.genblk1\.STORAGE
*585 WORD\[0\]\.W\.BYTE\[3\]\.B\.BIT\[6\]\.OBUF0
*586 WORD\[0\]\.W\.BYTE\[3\]\.B\.BIT\[6\]\.genblk1\.STORAGE
*587 WORD\[0\]\.W\.BYTE\[3\]\.B\.BIT\[7\]\.OBUF0
*588 WORD\[0\]\.W\.BYTE\[3\]\.B\.BIT\[7\]\.genblk1\.STORAGE
*589 WORD\[0\]\.W\.BYTE\[3\]\.B\.CGAND
*590 WORD\[0\]\.W\.BYTE\[3\]\.B\.DIODE_CLK
*591 WORD\[0\]\.W\.BYTE\[3\]\.B\.SEL0INV
*592 WORD\[0\]\.W\.BYTE\[3\]\.B\.genblk1\.CG
*593 WORD\[0\]\.W\.BYTE\[3\]\.B\.genblk1\.CLKINV
*594 WORD\[0\]\.W\.CLKBUF
*595 WORD\[0\]\.W\.SEL0BUF
*596 WORD\[1\]\.W\.BYTE\[0\]\.B\.BIT\[0\]\.OBUF0
*597 WORD\[1\]\.W\.BYTE\[0\]\.B\.BIT\[0\]\.genblk1\.STORAGE
*598 WORD\[1\]\.W\.BYTE\[0\]\.B\.BIT\[1\]\.OBUF0
*599 WORD\[1\]\.W\.BYTE\[0\]\.B\.BIT\[1\]\.genblk1\.STORAGE
*600 WORD\[1\]\.W\.BYTE\[0\]\.B\.BIT\[2\]\.OBUF0
*601 WORD\[1\]\.W\.BYTE\[0\]\.B\.BIT\[2\]\.genblk1\.STORAGE
*602 WORD\[1\]\.W\.BYTE\[0\]\.B\.BIT\[3\]\.OBUF0
*603 WORD\[1\]\.W\.BYTE\[0\]\.B\.BIT\[3\]\.genblk1\.STORAGE
*604 WORD\[1\]\.W\.BYTE\[0\]\.B\.BIT\[4\]\.OBUF0
*605 WORD\[1\]\.W\.BYTE\[0\]\.B\.BIT\[4\]\.genblk1\.STORAGE
*606 WORD\[1\]\.W\.BYTE\[0\]\.B\.BIT\[5\]\.OBUF0
*607 WORD\[1\]\.W\.BYTE\[0\]\.B\.BIT\[5\]\.genblk1\.STORAGE
*608 WORD\[1\]\.W\.BYTE\[0\]\.B\.BIT\[6\]\.OBUF0
*609 WORD\[1\]\.W\.BYTE\[0\]\.B\.BIT\[6\]\.genblk1\.STORAGE
*610 WORD\[1\]\.W\.BYTE\[0\]\.B\.BIT\[7\]\.OBUF0
*611 WORD\[1\]\.W\.BYTE\[0\]\.B\.BIT\[7\]\.genblk1\.STORAGE
*612 WORD\[1\]\.W\.BYTE\[0\]\.B\.CGAND
*613 WORD\[1\]\.W\.BYTE\[0\]\.B\.DIODE_CLK
*614 WORD\[1\]\.W\.BYTE\[0\]\.B\.SEL0INV
*615 WORD\[1\]\.W\.BYTE\[0\]\.B\.genblk1\.CG
*616 WORD\[1\]\.W\.BYTE\[0\]\.B\.genblk1\.CLKINV
*617 WORD\[1\]\.W\.BYTE\[1\]\.B\.BIT\[0\]\.OBUF0
*618 WORD\[1\]\.W\.BYTE\[1\]\.B\.BIT\[0\]\.genblk1\.STORAGE
*619 WORD\[1\]\.W\.BYTE\[1\]\.B\.BIT\[1\]\.OBUF0
*620 WORD\[1\]\.W\.BYTE\[1\]\.B\.BIT\[1\]\.genblk1\.STORAGE
*621 WORD\[1\]\.W\.BYTE\[1\]\.B\.BIT\[2\]\.OBUF0
*622 WORD\[1\]\.W\.BYTE\[1\]\.B\.BIT\[2\]\.genblk1\.STORAGE
*623 WORD\[1\]\.W\.BYTE\[1\]\.B\.BIT\[3\]\.OBUF0
*624 WORD\[1\]\.W\.BYTE\[1\]\.B\.BIT\[3\]\.genblk1\.STORAGE
*625 WORD\[1\]\.W\.BYTE\[1\]\.B\.BIT\[4\]\.OBUF0
*626 WORD\[1\]\.W\.BYTE\[1\]\.B\.BIT\[4\]\.genblk1\.STORAGE
*627 WORD\[1\]\.W\.BYTE\[1\]\.B\.BIT\[5\]\.OBUF0
*628 WORD\[1\]\.W\.BYTE\[1\]\.B\.BIT\[5\]\.genblk1\.STORAGE
*629 WORD\[1\]\.W\.BYTE\[1\]\.B\.BIT\[6\]\.OBUF0
*630 WORD\[1\]\.W\.BYTE\[1\]\.B\.BIT\[6\]\.genblk1\.STORAGE
*631 WORD\[1\]\.W\.BYTE\[1\]\.B\.BIT\[7\]\.OBUF0
*632 WORD\[1\]\.W\.BYTE\[1\]\.B\.BIT\[7\]\.genblk1\.STORAGE
*633 WORD\[1\]\.W\.BYTE\[1\]\.B\.CGAND
*634 WORD\[1\]\.W\.BYTE\[1\]\.B\.DIODE_CLK
*635 WORD\[1\]\.W\.BYTE\[1\]\.B\.SEL0INV
*636 WORD\[1\]\.W\.BYTE\[1\]\.B\.genblk1\.CG
*637 WORD\[1\]\.W\.BYTE\[1\]\.B\.genblk1\.CLKINV
*638 WORD\[1\]\.W\.BYTE\[2\]\.B\.BIT\[0\]\.OBUF0
*639 WORD\[1\]\.W\.BYTE\[2\]\.B\.BIT\[0\]\.genblk1\.STORAGE
*640 WORD\[1\]\.W\.BYTE\[2\]\.B\.BIT\[1\]\.OBUF0
*641 WORD\[1\]\.W\.BYTE\[2\]\.B\.BIT\[1\]\.genblk1\.STORAGE
*642 WORD\[1\]\.W\.BYTE\[2\]\.B\.BIT\[2\]\.OBUF0
*643 WORD\[1\]\.W\.BYTE\[2\]\.B\.BIT\[2\]\.genblk1\.STORAGE
*644 WORD\[1\]\.W\.BYTE\[2\]\.B\.BIT\[3\]\.OBUF0
*645 WORD\[1\]\.W\.BYTE\[2\]\.B\.BIT\[3\]\.genblk1\.STORAGE
*646 WORD\[1\]\.W\.BYTE\[2\]\.B\.BIT\[4\]\.OBUF0
*647 WORD\[1\]\.W\.BYTE\[2\]\.B\.BIT\[4\]\.genblk1\.STORAGE
*648 WORD\[1\]\.W\.BYTE\[2\]\.B\.BIT\[5\]\.OBUF0
*649 WORD\[1\]\.W\.BYTE\[2\]\.B\.BIT\[5\]\.genblk1\.STORAGE
*650 WORD\[1\]\.W\.BYTE\[2\]\.B\.BIT\[6\]\.OBUF0
*651 WORD\[1\]\.W\.BYTE\[2\]\.B\.BIT\[6\]\.genblk1\.STORAGE
*652 WORD\[1\]\.W\.BYTE\[2\]\.B\.BIT\[7\]\.OBUF0
*653 WORD\[1\]\.W\.BYTE\[2\]\.B\.BIT\[7\]\.genblk1\.STORAGE
*654 WORD\[1\]\.W\.BYTE\[2\]\.B\.CGAND
*655 WORD\[1\]\.W\.BYTE\[2\]\.B\.DIODE_CLK
*656 WORD\[1\]\.W\.BYTE\[2\]\.B\.SEL0INV
*657 WORD\[1\]\.W\.BYTE\[2\]\.B\.genblk1\.CG
*658 WORD\[1\]\.W\.BYTE\[2\]\.B\.genblk1\.CLKINV
*659 WORD\[1\]\.W\.BYTE\[3\]\.B\.BIT\[0\]\.OBUF0
*660 WORD\[1\]\.W\.BYTE\[3\]\.B\.BIT\[0\]\.genblk1\.STORAGE
*661 WORD\[1\]\.W\.BYTE\[3\]\.B\.BIT\[1\]\.OBUF0
*662 WORD\[1\]\.W\.BYTE\[3\]\.B\.BIT\[1\]\.genblk1\.STORAGE
*663 WORD\[1\]\.W\.BYTE\[3\]\.B\.BIT\[2\]\.OBUF0
*664 WORD\[1\]\.W\.BYTE\[3\]\.B\.BIT\[2\]\.genblk1\.STORAGE
*665 WORD\[1\]\.W\.BYTE\[3\]\.B\.BIT\[3\]\.OBUF0
*666 WORD\[1\]\.W\.BYTE\[3\]\.B\.BIT\[3\]\.genblk1\.STORAGE
*667 WORD\[1\]\.W\.BYTE\[3\]\.B\.BIT\[4\]\.OBUF0
*668 WORD\[1\]\.W\.BYTE\[3\]\.B\.BIT\[4\]\.genblk1\.STORAGE
*669 WORD\[1\]\.W\.BYTE\[3\]\.B\.BIT\[5\]\.OBUF0
*670 WORD\[1\]\.W\.BYTE\[3\]\.B\.BIT\[5\]\.genblk1\.STORAGE
*671 WORD\[1\]\.W\.BYTE\[3\]\.B\.BIT\[6\]\.OBUF0
*672 WORD\[1\]\.W\.BYTE\[3\]\.B\.BIT\[6\]\.genblk1\.STORAGE
*673 WORD\[1\]\.W\.BYTE\[3\]\.B\.BIT\[7\]\.OBUF0
*674 WORD\[1\]\.W\.BYTE\[3\]\.B\.BIT\[7\]\.genblk1\.STORAGE
*675 WORD\[1\]\.W\.BYTE\[3\]\.B\.CGAND
*676 WORD\[1\]\.W\.BYTE\[3\]\.B\.DIODE_CLK
*677 WORD\[1\]\.W\.BYTE\[3\]\.B\.SEL0INV
*678 WORD\[1\]\.W\.BYTE\[3\]\.B\.genblk1\.CG
*679 WORD\[1\]\.W\.BYTE\[3\]\.B\.genblk1\.CLKINV
*680 WORD\[1\]\.W\.CLKBUF
*681 WORD\[1\]\.W\.SEL0BUF
*682 WORD\[2\]\.W\.BYTE\[0\]\.B\.BIT\[0\]\.OBUF0
*683 WORD\[2\]\.W\.BYTE\[0\]\.B\.BIT\[0\]\.genblk1\.STORAGE
*684 WORD\[2\]\.W\.BYTE\[0\]\.B\.BIT\[1\]\.OBUF0
*685 WORD\[2\]\.W\.BYTE\[0\]\.B\.BIT\[1\]\.genblk1\.STORAGE
*686 WORD\[2\]\.W\.BYTE\[0\]\.B\.BIT\[2\]\.OBUF0
*687 WORD\[2\]\.W\.BYTE\[0\]\.B\.BIT\[2\]\.genblk1\.STORAGE
*688 WORD\[2\]\.W\.BYTE\[0\]\.B\.BIT\[3\]\.OBUF0
*689 WORD\[2\]\.W\.BYTE\[0\]\.B\.BIT\[3\]\.genblk1\.STORAGE
*690 WORD\[2\]\.W\.BYTE\[0\]\.B\.BIT\[4\]\.OBUF0
*691 WORD\[2\]\.W\.BYTE\[0\]\.B\.BIT\[4\]\.genblk1\.STORAGE
*692 WORD\[2\]\.W\.BYTE\[0\]\.B\.BIT\[5\]\.OBUF0
*693 WORD\[2\]\.W\.BYTE\[0\]\.B\.BIT\[5\]\.genblk1\.STORAGE
*694 WORD\[2\]\.W\.BYTE\[0\]\.B\.BIT\[6\]\.OBUF0
*695 WORD\[2\]\.W\.BYTE\[0\]\.B\.BIT\[6\]\.genblk1\.STORAGE
*696 WORD\[2\]\.W\.BYTE\[0\]\.B\.BIT\[7\]\.OBUF0
*697 WORD\[2\]\.W\.BYTE\[0\]\.B\.BIT\[7\]\.genblk1\.STORAGE
*698 WORD\[2\]\.W\.BYTE\[0\]\.B\.CGAND
*699 WORD\[2\]\.W\.BYTE\[0\]\.B\.DIODE_CLK
*700 WORD\[2\]\.W\.BYTE\[0\]\.B\.SEL0INV
*701 WORD\[2\]\.W\.BYTE\[0\]\.B\.genblk1\.CG
*702 WORD\[2\]\.W\.BYTE\[0\]\.B\.genblk1\.CLKINV
*703 WORD\[2\]\.W\.BYTE\[1\]\.B\.BIT\[0\]\.OBUF0
*704 WORD\[2\]\.W\.BYTE\[1\]\.B\.BIT\[0\]\.genblk1\.STORAGE
*705 WORD\[2\]\.W\.BYTE\[1\]\.B\.BIT\[1\]\.OBUF0